test/data/b6gic_nerc.json
{
  "area": [], 
  "baseMVA": 100.0, 
  "branch": [
    {
      "angmax": 30.0, 
      "angmin": -30.0, 
      "baseMVA": 100.0, 
      "br_b": 0.0, 
      "br_r": 0.0001, 
      "br_rdc": 0.0001, 
      "br_status": 1, 
      "br_x": 0.004, 
      "config": "gwye-delta", 
      "data": {}, 
      "dc_brid": null, 
      "f_bus": 2, 
      "gmd_br_hi": 1, 
      "gmd_br_lo": null, 
      "gmd_k": 1.8, 
      "gmd_vdc": 0.0, 
      "hi_bus": 2, 
      "index": 1, 
      "len_km": 0.0, 
      "lo_bus": 1, 
      "name": "T1", 
      "rate_a": 9000.0, 
      "rate_b": 0.0, 
      "rate_c": 0.0, 
      "rdc_hi": 0.5, 
      "rdc_lo": null, 
      "shift": 0.0, 
      "sub": 1, 
      "t_bus": 1, 
      "tap": 0.0, 
      "type": "xf"
    }, 
    {
      "angmax": 30.0, 
      "angmin": -30.0, 
      "baseMVA": 100.0, 
      "br_b": 0.0, 
      "br_r": 0.0001, 
      "br_rdc": 0.0001, 
      "br_status": 1, 
      "br_x": 0.004, 
      "config": "gwye-gwye-auto", 
      "data": {}, 
      "dc_brid": null, 
      "dc_brid_hi": 2, 
      "dc_brid_lo": 3, 
      "f_bus": 3, 
      "gmd_br_common": 3, 
      "gmd_br_series": 2, 
      "gmd_k": 1.8, 
      "gmd_vdc": 0.0, 
      "hi_bus": 4, 
      "index": 2, 
      "len_km": 0.0, 
      "lo_bus": 3, 
      "name": "T2", 
      "rate_a": 9000.0, 
      "rate_b": 0.0, 
      "rate_c": 0.0, 
      "rdc_common": null, 
      "rdc_hi": 0.2, 
      "rdc_lo": 0.2, 
      "rdc_series": null, 
      "shift": 0.0, 
      "sub": 2, 
      "t_bus": 4, 
      "tap": 0.0, 
      "type": "xf"
    }, 
    {
      "angmax": 30.0, 
      "angmin": -30.0, 
      "baseMVA": 100.0, 
      "br_b": 0.0, 
      "br_r": 0.0001, 
      "br_rdc": 0.0001, 
      "br_status": 1, 
      "br_x": 0.004, 
      "config": "gwye-delta", 
      "data": {}, 
      "dc_brid": null, 
      "f_bus": 5, 
      "gmd_br_hi": 4, 
      "gmd_br_lo": null, 
      "gmd_k": 1.8, 
      "gmd_vdc": 0.0, 
      "hi_bus": 5, 
      "index": 3, 
      "len_km": 0.0, 
      "lo_bus": 6, 
      "name": "T3", 
      "rate_a": 9000.0, 
      "rate_b": 0.0, 
      "rate_c": 0.0, 
      "rdc_hi": 0.5, 
      "rdc_lo": null, 
      "shift": 0.0, 
      "sub": 3, 
      "t_bus": 6, 
      "tap": 0.0, 
      "type": "xf"
    }, 
    {
      "angmax": 30.0, 
      "angmin": -30.0, 
      "baseMVA": 100.0, 
      "br_b": 0.1, 
      "br_r": 0.00296, 
      "br_rdc": 0.00296, 
      "br_status": 1, 
      "br_x": 0.07, 
      "data": {}, 
      "dist_e_km": 93.156998118839681, 
      "dist_n_km": 77.306127042050392, 
      "f_bus": 2, 
      "gmd_br": 5, 
      "gmd_r_Ohms": 3.525, 
      "gmd_vdc": 93.15699811883968, 
      "hi_bus": 2, 
      "index": 4, 
      "len_km": 121.05562183044262, 
      "lo_bus": 3, 
      "name": "br23", 
      "rate_a": 9000.0, 
      "rate_b": 0.0, 
      "rate_c": 0.0, 
      "shift": 0.0, 
      "sub": null, 
      "t_bus": 3, 
      "tap": 0.0, 
      "type": "line"
    }, 
    {
      "angmax": 30.0, 
      "angmin": -30.0, 
      "baseMVA": 100.0, 
      "br_b": 0.1, 
      "br_r": 0.00187, 
      "br_rdc": 0.00187, 
      "br_status": 1, 
      "br_x": 0.07, 
      "data": {}, 
      "dist_e_km": 155.55621025546998, 
      "dist_n_km": -39.420638933119143, 
      "f_bus": 4, 
      "gmd_br": 6, 
      "gmd_r_Ohms": 4.665, 
      "gmd_vdc": 155.55621025546998, 
      "hi_bus": 4, 
      "index": 5, 
      "len_km": 160.47342871310295, 
      "lo_bus": 5, 
      "name": "br45", 
      "rate_a": 9000.0, 
      "rate_b": 0.0, 
      "rate_c": 0.0, 
      "shift": 0.0, 
      "sub": null, 
      "t_bus": 5, 
      "tap": 0.0, 
      "type": "line"
    }
  ], 
  "bus": [
    {
      "area": 1, 
      "base_kv": 20.0, 
      "bs": 0.0, 
      "bus_i": 1, 
      "bus_type": 3, 
      "gmd_baseMVA": 100.0, 
      "gmd_bus": 4, 
      "gmd_gs": 0.0, 
      "gmd_k": 0.001, 
      "gmd_neu_bus": null, 
      "gs": 0.0, 
      "index": 1, 
      "lat": 33.613499, 
      "lon": -87.373673, 
      "name": "bus1", 
      "nid": 1, 
      "pd": 100.0, 
      "qd": 20.0, 
      "sid": 1, 
      "sub": 1, 
      "type": "bus", 
      "va": -0.0, 
      "vm": 1.1, 
      "vmax": 1.3, 
      "vmin": 0.7, 
      "zone": 1
    }, 
    {
      "area": 1, 
      "base_kv": 345.0, 
      "bs": 0.0, 
      "bus_i": 2, 
      "bus_type": 3, 
      "gmd_baseMVA": 100.0, 
      "gmd_bus": 5, 
      "gmd_gs": 0.0, 
      "gmd_k": 0.001, 
      "gmd_neu_bus": null, 
      "gs": 0.0, 
      "index": 2, 
      "lat": 33.613499, 
      "lon": -87.373673, 
      "name": "bus2", 
      "nid": 2, 
      "pd": 0.0, 
      "qd": 0.0, 
      "sid": 1, 
      "sub": 1, 
      "type": "bus", 
      "va": -0.0, 
      "vm": 1.1, 
      "vmax": 1.3, 
      "vmin": 0.7, 
      "zone": 1
    }, 
    {
      "area": 1, 
      "base_kv": 345.0, 
      "bs": 0.0, 
      "bus_i": 3, 
      "bus_type": 3, 
      "gmd_baseMVA": 100.0, 
      "gmd_bus": 6, 
      "gmd_gs": 0.0, 
      "gmd_k": 0.001, 
      "gmd_neu_bus": null, 
      "gs": 0.0, 
      "index": 3, 
      "lat": 34.310437, 
      "lon": -86.365765, 
      "name": "bus3", 
      "nid": 3, 
      "pd": 0.0, 
      "qd": 0.0, 
      "sid": 2, 
      "sub": 2, 
      "type": "bus", 
      "va": -0.0, 
      "vm": 1.1, 
      "vmax": 1.3, 
      "vmin": 0.7, 
      "zone": 1
    }, 
    {
      "area": 1, 
      "base_kv": 500.0, 
      "bs": 0.0, 
      "bus_i": 4, 
      "bus_type": 3, 
      "gmd_baseMVA": 100.0, 
      "gmd_bus": 7, 
      "gmd_gs": 0.0, 
      "gmd_k": 0.001, 
      "gmd_neu_bus": null, 
      "gs": 0.0, 
      "index": 4, 
      "lat": 34.310437, 
      "lon": -86.365765, 
      "name": "bus4", 
      "nid": 4, 
      "pd": 0.0, 
      "qd": 0.0, 
      "sid": 2, 
      "sub": 2, 
      "type": "bus", 
      "va": -0.0, 
      "vm": 1.1, 
      "vmax": 1.3, 
      "vmin": 0.7, 
      "zone": 1
    }, 
    {
      "area": 1, 
      "base_kv": 500.0, 
      "bs": 0.0, 
      "bus_i": 5, 
      "bus_type": 3, 
      "gmd_baseMVA": 100.0, 
      "gmd_bus": 8, 
      "gmd_gs": 0.0, 
      "gmd_k": 0.001, 
      "gmd_neu_bus": null, 
      "gs": 0.0, 
      "index": 5, 
      "lat": 33.955058, 
      "lon": -84.679354, 
      "name": "bus5", 
      "nid": 5, 
      "pd": 0.0, 
      "qd": 0.0, 
      "sid": 3, 
      "sub": 3, 
      "type": "bus", 
      "va": -0.0, 
      "vm": 1.1, 
      "vmax": 1.3, 
      "vmin": 0.7, 
      "zone": 1
    }, 
    {
      "area": 1, 
      "base_kv": 20.0, 
      "bs": 0.0, 
      "bus_i": 6, 
      "bus_type": 3, 
      "gmd_baseMVA": 100.0, 
      "gmd_bus": 9, 
      "gmd_gs": 0.0, 
      "gmd_k": 0.001, 
      "gmd_neu_bus": null, 
      "gs": 0.0, 
      "index": 6, 
      "lat": 33.955058, 
      "lon": -84.679354, 
      "name": "bus6", 
      "nid": 6, 
      "pd": 0.0, 
      "qd": 0.0, 
      "sid": 3, 
      "sub": 3, 
      "type": "bus", 
      "va": -0.0, 
      "vm": 1.1, 
      "vmax": 1.0, 
      "vmin": 0.7, 
      "zone": 1
    }
  ], 
  "dcline": [], 
  "gen": [
    {
      "apf": 0.0, 
      "cost": [
        0.085, 
        1.2, 
        0.0
      ], 
      "gen_bus": 6, 
      "gen_status": 1, 
      "index": 1, 
      "mbase": 100.0, 
      "name": "gen2", 
      "pc1": 0.0, 
      "pc2": 0.0, 
      "pg": 170.0, 
      "pmax": 2000.0, 
      "pmin": 0.0, 
      "qc1max": 0.0, 
      "qc1min": 0.0, 
      "qc2max": 0.0, 
      "qc2min": 0.0, 
      "qg": 0.0, 
      "qmax": 2000.0, 
      "qmin": -2000.0, 
      "ramp_30": 0.0, 
      "ramp_agc": 0.0, 
      "ramp_q": -1000.0, 
      "type": "gen", 
      "vg": 1.1
    }
  ], 
  "gencost": [
    {
      "cost": [
        0.085, 
        1.2, 
        0.0
      ], 
      "index": 1, 
      "model": 2, 
      "name": "gen2_cost", 
      "ncost": 3, 
      "shutdown": 0.0, 
      "startup": 0.0
    }
  ], 
  "gmd_branch": [
    {
      "br_r": 0.16666666666666666, 
      "br_status": 1, 
      "br_v": 0.0, 
      "data": {}, 
      "f_bus": 5, 
      "index": 1, 
      "len_km": 0.0, 
      "name": "dc_T1_hi", 
      "parent_index": 1, 
      "parent_name": "T1", 
      "t_bus": 1, 
      "type": "gwye winding high-side"
    }, 
    {
      "br_r": 0.06666666666666667, 
      "br_status": 1, 
      "br_v": 0.0, 
      "data": {}, 
      "f_bus": 6, 
      "index": 2, 
      "len_km": 0.0, 
      "name": "dc_T2_series", 
      "parent_index": 2, 
      "parent_name": "T2", 
      "t_bus": 7, 
      "type": "gwye auto series winding (high)"
    }, 
    {
      "br_r": 0.06666666666666667, 
      "br_status": 1, 
      "br_v": 0.0, 
      "data": {}, 
      "f_bus": 6, 
      "index": 3, 
      "len_km": 0.0, 
      "name": "dc_T2_common", 
      "parent_index": 2, 
      "parent_name": "T2", 
      "t_bus": 2, 
      "type": "gwye auto common winding (low)"
    }, 
    {
      "br_r": 0.16666666666666666, 
      "br_status": 1, 
      "br_v": 0.0, 
      "data": {}, 
      "f_bus": 8, 
      "index": 4, 
      "len_km": 0.0, 
      "name": "dc_T3_hi", 
      "parent_index": 3, 
      "parent_name": "T3", 
      "t_bus": 3, 
      "type": "gwye winding high-side"
    }, 
    {
      "br_r": 1.17438, 
      "br_status": 1, 
      "br_v": 93.15699811883968, 
      "data": {}, 
      "f_bus": 5, 
      "index": 5, 
      "len_km": 121.05562183044262, 
      "name": "dc_br23", 
      "parent_index": 4, 
      "parent_name": "br23", 
      "t_bus": 6, 
      "type": "line"
    }, 
    {
      "br_r": 1.5583333333333333, 
      "br_status": 1, 
      "br_v": 155.55621025546998, 
      "data": {}, 
      "f_bus": 7, 
      "index": 6, 
      "len_km": 160.47342871310295, 
      "name": "dc_br45", 
      "parent_index": 5, 
      "parent_name": "br45", 
      "t_bus": 8, 
      "type": "line"
    }
  ], 
  "gmd_bus": [
    {
      "bus_i": 1, 
      "g_gnd": 5.0, 
      "index": 1, 
      "name": "dc_sub1", 
      "parent_index": 1, 
      "parent_name": "sub1", 
      "parent_type": "sub"
    }, 
    {
      "bus_i": 2, 
      "g_gnd": 5.0, 
      "index": 2, 
      "name": "dc_sub2", 
      "parent_index": 2, 
      "parent_name": "sub2", 
      "parent_type": "sub"
    }, 
    {
      "bus_i": 3, 
      "g_gnd": 5.0, 
      "index": 3, 
      "name": "dc_sub3", 
      "parent_index": 3, 
      "parent_name": "sub3", 
      "parent_type": "sub"
    }, 
    {
      "bus_i": 4, 
      "g_gnd": 0.0, 
      "index": 4, 
      "name": "dc_bus1", 
      "parent_index": 1, 
      "parent_name": "bus1", 
      "parent_type": "bus"
    }, 
    {
      "bus_i": 5, 
      "g_gnd": 0.0, 
      "index": 5, 
      "name": "dc_bus2", 
      "parent_index": 2, 
      "parent_name": "bus2", 
      "parent_type": "bus"
    }, 
    {
      "bus_i": 6, 
      "g_gnd": 0.0, 
      "index": 6, 
      "name": "dc_bus3", 
      "parent_index": 3, 
      "parent_name": "bus3", 
      "parent_type": "bus"
    }, 
    {
      "bus_i": 7, 
      "g_gnd": 0.0, 
      "index": 7, 
      "name": "dc_bus4", 
      "parent_index": 4, 
      "parent_name": "bus4", 
      "parent_type": "bus"
    }, 
    {
      "bus_i": 8, 
      "g_gnd": 0.0, 
      "index": 8, 
      "name": "dc_bus5", 
      "parent_index": 5, 
      "parent_name": "bus5", 
      "parent_type": "bus"
    }, 
    {
      "bus_i": 9, 
      "g_gnd": 0.0, 
      "index": 9, 
      "name": "dc_bus6", 
      "parent_index": 6, 
      "parent_name": "bus6", 
      "parent_type": "bus"
    }
  ], 
  "gmd_e_field_dir": 90.0, 
  "gmd_e_field_mag": 1.0, 
  "name": "b6gic_nerc", 
  "sub": [
    {
      "bus_i": 1, 
      "dc_bus_Factory": null, 
      "gmd_bus": 1, 
      "gmd_rs_Ohms": 0.2, 
      "index": 1, 
      "lat": 33.613499, 
      "lon": -87.373673, 
      "name": "sub1", 
      "sid": 1, 
      "type": "sub"
    }, 
    {
      "bus_i": 2, 
      "dc_bus_Factory": null, 
      "gmd_bus": 2, 
      "gmd_rs_Ohms": 0.2, 
      "index": 2, 
      "lat": 34.310437, 
      "lon": -86.365765, 
      "name": "sub2", 
      "sid": 2, 
      "type": "sub"
    }, 
    {
      "bus_i": 3, 
      "dc_bus_Factory": null, 
      "gmd_bus": 3, 
      "gmd_rs_Ohms": 0.2, 
      "index": 3, 
      "lat": 33.955058, 
      "lon": -84.679354, 
      "name": "sub3", 
      "sid": 3, 
      "type": "sub"
    }
  ], 
  "version": "nestay-0.1"
}